Version 4
SHEET 1 2744 1288
WIRE 512 -192 448 -192
WIRE 672 -192 576 -192
WIRE 1184 -192 752 -192
WIRE 1184 -160 1184 -192
WIRE 128 -16 48 -16
WIRE 224 -16 128 -16
WIRE 288 -16 224 -16
WIRE 352 -16 288 -16
WIRE 704 -16 352 -16
WIRE 944 -16 704 -16
WIRE 1072 -16 944 -16
WIRE 1184 -16 1072 -16
WIRE 1344 -16 1296 -16
WIRE 1472 -16 1408 -16
WIRE 1584 -16 1472 -16
WIRE 1776 -16 1584 -16
WIRE 2016 -16 1776 -16
WIRE 352 0 352 -16
WIRE 704 0 704 -16
WIRE 944 0 944 -16
WIRE 1184 0 1184 -16
WIRE 1296 0 1296 -16
WIRE 1472 0 1472 -16
WIRE 1584 0 1584 -16
WIRE 1072 32 1072 -16
WIRE 224 48 224 -16
WIRE 448 48 448 -192
WIRE 832 48 448 48
WIRE 1776 64 1776 -16
WIRE 288 80 288 -16
WIRE 832 96 832 48
WIRE 832 96 464 96
WIRE 960 96 832 96
WIRE 704 112 704 80
WIRE 832 112 832 96
WIRE 1296 112 1296 80
WIRE 1472 112 1472 64
WIRE 1472 112 1296 112
WIRE 1584 112 1584 64
WIRE 1584 112 1472 112
WIRE 48 144 48 -16
WIRE 224 160 224 128
WIRE 224 160 160 160
WIRE 240 160 224 160
WIRE 1296 160 1296 112
WIRE 496 176 480 176
WIRE 608 176 576 176
WIRE 976 176 928 176
WIRE 1120 176 1056 176
WIRE 1152 176 1120 176
WIRE 1184 176 1184 80
WIRE 1184 176 1152 176
WIRE 1776 176 1776 144
WIRE 160 192 160 160
WIRE 1152 192 1152 176
WIRE 288 224 288 176
WIRE 448 224 448 48
WIRE 448 224 288 224
WIRE 464 224 464 96
WIRE 480 224 480 176
WIRE 480 224 464 224
WIRE 1072 256 1072 96
WIRE 1152 256 1072 256
WIRE 1296 256 1296 240
WIRE 1328 256 1296 256
WIRE 1520 256 1472 256
WIRE 224 272 224 160
WIRE 288 272 288 224
WIRE 480 272 480 224
WIRE 496 272 480 272
WIRE 608 272 576 272
WIRE 1008 272 928 272
WIRE 1120 272 1120 176
WIRE 1120 272 1088 272
WIRE 1520 288 1520 256
WIRE 1152 304 1152 256
WIRE 48 352 48 224
WIRE 496 368 480 368
WIRE 608 368 576 368
WIRE 1072 368 928 368
WIRE 1472 384 1472 256
WIRE 1120 400 1120 272
WIRE 1152 400 1152 368
WIRE 128 416 128 -16
WIRE 480 416 480 368
WIRE 480 416 128 416
WIRE 1696 432 1616 432
WIRE 1776 432 1776 256
WIRE 1776 432 1696 432
WIRE 1344 448 1232 448
WIRE 1616 448 1616 432
WIRE 1616 448 1600 448
WIRE 480 464 480 416
WIRE 496 464 480 464
WIRE 608 464 576 464
WIRE 960 464 960 96
WIRE 960 464 928 464
WIRE 1232 464 1232 448
WIRE 1072 480 1072 368
WIRE 1776 544 1776 512
WIRE 1120 560 1120 496
WIRE 1120 560 928 560
WIRE 1344 560 1296 560
WIRE 1616 560 1600 560
WIRE 1120 576 1120 560
WIRE 1296 576 1296 560
WIRE 1616 576 1616 560
WIRE 1696 576 1616 576
WIRE 1120 656 928 656
WIRE 1296 656 1296 640
WIRE 1120 688 1120 656
WIRE 1024 752 928 752
WIRE 1232 752 1232 608
WIRE 1232 752 1024 752
WIRE 1024 768 1024 752
WIRE 976 848 928 848
WIRE 976 864 976 848
WIRE 768 960 768 912
FLAG 48 352 0
FLAG 768 960 0
FLAG 160 256 0
FLAG 224 336 0
FLAG 288 336 0
FLAG 352 64 0
FLAG 944 64 0
FLAG 1120 688 0
FLAG 976 944 0
FLAG 1024 848 0
FLAG 1152 400 0
FLAG 1184 -80 0
FLAG 1472 112 0
FLAG 1472 624 0
FLAG 1520 352 0
FLAG 1296 656 0
FLAG 1776 544 0
FLAG 2016 64 0
SYMBOL voltage 48 128 R0
WINDOW 123 0 0 Left 0
WINDOW 39 0 0 Left 0
SYMATTR InstName V1
SYMATTR Value 230
SYMBOL PowerProducts\\LT3751 768 512 R0
SYMATTR InstName U1
SYMBOL res 208 32 R0
SYMATTR InstName R1
SYMATTR Value 49.9k
SYMBOL cap 144 192 R0
SYMATTR InstName C1
SYMATTR Value 100p
SYMBOL zener 240 336 R180
WINDOW 0 24 64 Left 2
WINDOW 3 24 0 Left 2
SYMATTR InstName D1
SYMATTR Value BZX84C12L
SYMATTR Description Diode
SYMATTR Type diode
SYMBOL cap 272 272 R0
SYMATTR InstName C2
SYMATTR Value 1µ
SYMBOL nmos 240 80 R0
SYMATTR InstName M1
SYMATTR Value AP9465GEM
SYMBOL polcap 336 0 R0
SYMATTR InstName C3
SYMATTR Value 22µ
SYMBOL res 688 -16 R0
SYMATTR InstName R3
SYMATTR Value 210k
SYMBOL res 768 -208 R90
WINDOW 0 0 56 VBottom 2
WINDOW 3 32 56 VTop 2
SYMATTR InstName R2
SYMATTR Value 10
SYMBOL diode 576 -208 R90
WINDOW 0 0 32 VBottom 2
WINDOW 3 32 32 VTop 2
SYMATTR InstName D2
SYMATTR Value RR601BM4S
SYMBOL cap 928 0 R0
SYMATTR InstName C4
SYMATTR Value 1µ
SYMBOL diode 1056 32 R0
SYMATTR InstName D3
SYMATTR Value BAS21HM
SYMBOL ind2 1168 -16 R0
SYMATTR InstName L1
SYMATTR Value 100µ
SYMATTR Type ind
SYMBOL res 1072 160 R90
WINDOW 0 0 56 VBottom 2
WINDOW 3 32 56 VTop 2
SYMATTR InstName R4
SYMATTR Value 105k
SYMBOL res 1104 256 R90
WINDOW 0 0 56 VBottom 2
WINDOW 3 32 56 VTop 2
SYMATTR InstName R5
SYMATTR Value 210k
SYMBOL res 1104 560 R0
SYMATTR InstName R6
SYMATTR Value 40m
SYMBOL res 1008 752 R0
SYMATTR InstName R7
SYMATTR Value 475
SYMBOL res 960 848 R0
SYMATTR InstName R8
SYMATTR Value 2.49k
SYMBOL diode 1136 192 R0
SYMATTR InstName D4
SYMATTR Value RR601BM4S
SYMBOL cap 1136 304 R0
SYMATTR InstName C5
SYMATTR Value 0.01µ
SYMBOL nmos 1072 400 R0
SYMATTR InstName M2
SYMATTR Value AP9465GEM
SYMBOL res 592 352 R90
WINDOW 0 0 56 VBottom 2
WINDOW 3 32 56 VTop 2
SYMATTR InstName R9
SYMATTR Value 2.7Meg
SYMBOL res 592 448 R90
WINDOW 0 0 56 VBottom 2
WINDOW 3 32 56 VTop 2
SYMATTR InstName R10
SYMATTR Value 4.3Meg
SYMBOL res 592 160 R90
WINDOW 0 0 56 VBottom 2
WINDOW 3 32 56 VTop 2
SYMATTR InstName R11
SYMATTR Value 84.5k
SYMBOL res 592 256 R90
WINDOW 0 0 56 VBottom 2
WINDOW 3 32 56 VTop 2
SYMATTR InstName R12
SYMATTR Value 442k
SYMBOL ind2 1312 96 R180
WINDOW 0 36 80 Left 2
WINDOW 3 36 40 Left 2
SYMATTR InstName L2
SYMATTR Value 400µ
SYMATTR Type ind
SYMBOL ind2 1168 -64 M180
WINDOW 0 36 80 Left 2
WINDOW 3 36 40 Left 2
SYMATTR InstName L3
SYMATTR Value 0.64µ
SYMATTR Type ind
SYMBOL diode 1344 0 R270
WINDOW 0 32 32 VTop 2
WINDOW 3 0 32 VBottom 2
SYMATTR InstName D5
SYMATTR Value BAS21HM
SYMBOL cap 1456 0 R0
SYMATTR InstName C6
SYMATTR Value 0.1µ
SYMBOL polcap 1568 0 R0
SYMATTR InstName C7
SYMATTR Value 400µ
SYMBOL ind2 1312 144 M0
SYMATTR InstName L4
SYMATTR Value 0.64µ
SYMATTR Type ind
SYMBOL res 1312 272 R270
WINDOW 0 32 56 VTop 2
WINDOW 3 0 56 VBottom 2
SYMATTR InstName R15
SYMATTR Value 5.11
SYMBOL res 1760 48 R0
SYMATTR InstName R16
SYMATTR Value 249k
SYMBOL res 1760 160 R0
SYMATTR InstName R17
SYMATTR Value 221k
SYMBOL res 1760 416 R0
SYMATTR InstName R18
SYMATTR Value 1k
SYMBOL res 1712 528 R180
WINDOW 0 36 76 Left 2
WINDOW 3 36 40 Left 2
SYMATTR InstName R19
SYMATTR Value 3.16k
SYMBOL res 1216 448 R0
SYMATTR InstName R20
SYMATTR Value 274
SYMBOL diode 1408 272 R270
WINDOW 0 32 32 VTop 2
WINDOW 3 0 32 VBottom 2
SYMATTR InstName D6
SYMATTR Value BAS21HM
SYMBOL diode 1216 544 R0
SYMATTR InstName D7
SYMATTR Value BAS21HM
SYMBOL cap 1712 576 R180
WINDOW 0 24 56 Left 2
WINDOW 3 24 8 Left 2
SYMATTR InstName C8
SYMATTR Value 22n
SYMBOL PowerProducts\\LT4430 1472 496 R0
SYMATTR InstName U2
SYMBOL cap 1504 288 R0
SYMATTR InstName C9
SYMATTR Value 33µ
SYMBOL cap 1280 576 R0
SYMATTR InstName C10
SYMATTR Value 0.47µ
SYMBOL res 2000 -32 R0
SYMATTR InstName R13
SYMATTR Value 1k
TEXT 120 -312 Left 4 ;Flyback
TEXT 32 -192 Left 2 ;Input from full bridge rectifier
TEXT 40 576 Left 2 !.tran 1
TEXT 1184 -272 Left 2 !K L1 L2 L3 L4 1
TEXT 1128 768 Left 2 ;optocoupler missing
