Version 4
SHEET 1 1048 680
WIRE -656 -288 -784 -288
WIRE -560 -288 -656 -288
WIRE -496 -288 -560 -288
WIRE 144 -288 -496 -288
WIRE 272 -288 144 -288
WIRE 416 -288 272 -288
WIRE 576 -288 480 -288
WIRE 736 -288 640 -288
WIRE 832 -288 736 -288
WIRE 944 -288 832 -288
WIRE -656 -272 -656 -288
WIRE 416 -272 416 -288
WIRE 480 -272 480 -288
WIRE 736 -272 736 -288
WIRE 832 -272 832 -288
WIRE 944 -272 944 -288
WIRE 144 -256 144 -288
WIRE -368 -240 -432 -240
WIRE -352 -240 -368 -240
WIRE -192 -240 -208 -240
WIRE -48 -240 -192 -240
WIRE 32 -240 -48 -240
WIRE -432 -224 -432 -240
WIRE 32 -224 32 -240
WIRE -656 -176 -656 -192
WIRE -192 -176 -192 -240
WIRE 272 -176 272 -288
WIRE 480 -176 480 -192
WIRE 736 -176 736 -208
WIRE 832 -176 832 -208
WIRE 944 -176 944 -192
WIRE -784 -144 -784 -288
WIRE -432 -144 -432 -160
WIRE 32 -128 32 -144
WIRE -496 -112 -496 -288
WIRE -368 -112 -368 -240
WIRE 144 -112 144 -192
WIRE -48 -64 -48 -240
WIRE -784 -32 -784 -64
WIRE -592 -32 -784 -32
WIRE -192 -32 -192 -112
WIRE -192 -32 -272 -32
WIRE 144 -16 144 -48
WIRE 272 -16 272 -112
WIRE 272 -16 144 -16
WIRE 416 -16 416 -192
WIRE 416 -16 272 -16
WIRE -192 48 -240 48
WIRE -48 48 -48 16
WIRE -48 48 -192 48
WIRE -592 64 -704 64
WIRE -240 64 -240 48
WIRE -240 64 -272 64
WIRE -192 64 -192 48
WIRE -48 64 -48 48
WIRE -704 80 -704 64
WIRE -704 160 -704 144
WIRE -592 160 -704 160
WIRE -192 160 -192 144
WIRE -192 160 -272 160
WIRE -48 160 -48 144
WIRE -704 176 -704 160
WIRE 416 176 416 -16
WIRE -64 256 -272 256
WIRE 368 256 16 256
WIRE -688 352 -704 352
WIRE -592 352 -624 352
WIRE -64 352 -272 352
WIRE 64 352 -64 352
WIRE 416 352 416 272
WIRE 416 352 144 352
WIRE 416 368 416 352
WIRE -368 448 -368 432
WIRE 416 464 416 448
WIRE -496 480 -496 432
WIRE -496 576 -496 560
FLAG 832 -176 0
FLAG 480 -176 0
FLAG 944 -176 0
FLAG -656 -288 IN
FLAG 944 -288 OUT
FLAG 32 -128 0
FLAG -656 -176 0
FLAG -432 -144 0
FLAG -704 176 0
FLAG -704 352 0
FLAG -496 576 0
FLAG -368 448 0
FLAG -48 160 0
FLAG 416 464 0
FLAG 736 -176 0
FLAG -64 416 0
FLAG -784 48 0
FLAG -560 -224 0
SYMBOL voltage -656 -288 R0
WINDOW 123 0 0 Left 2
WINDOW 39 0 0 Left 2
SYMATTR InstName Vin1
SYMATTR Value 340
SYMBOL ind2 400 -288 R0
WINDOW 0 -3 37 Right 2
WINDOW 3 -2 74 Right 2
SYMATTR InstName L1
SYMATTR Value 810µ
SYMATTR SpiceLine Rser=0.5
SYMATTR Type ind
SYMBOL ind2 496 -176 R180
WINDOW 0 -4 72 Right 2
WINDOW 3 -3 34 Right 2
SYMATTR InstName L2
SYMATTR Value 2.5µ
SYMATTR SpiceLine Rser=0.03 Cpar=0.5p
SYMATTR Type ind
SYMBOL diode 576 -272 R270
WINDOW 0 32 32 VTop 2
WINDOW 3 0 32 VBottom 2
SYMATTR InstName D1
SYMATTR Value BAV21-WS-7-F
SYMBOL res 400 352 R0
SYMATTR InstName Rsense1
SYMATTR Value 62m
SYMBOL res 928 -288 R0
SYMATTR InstName Rload1
SYMATTR Value 2.31
SYMBOL cap -208 -112 M180
WINDOW 123 24 6 Left 2
WINDOW 0 24 56 Left 2
WINDOW 3 47 32 Left 2
SYMATTR Value2 Rser=10K
SYMATTR InstName C2
SYMATTR Value 47p
SYMBOL res -208 48 R0
SYMATTR InstName R1
SYMATTR Value 42.2k
SYMBOL res -64 -80 R0
SYMATTR InstName RFB2
SYMATTR Value 62.7k
SYMBOL res -64 48 R0
SYMATTR InstName RFB1
SYMATTR Value 4.99K
SYMBOL diode 128 -48 M180
WINDOW 0 24 64 Left 2
WINDOW 3 24 0 Left 2
SYMATTR InstName D2
SYMATTR Value CMMR1U-08
SYMBOL ind2 16 -128 M180
WINDOW 0 43 76 Left 2
WINDOW 3 41 42 Left 2
SYMATTR InstName L3
SYMATTR Value 22.5µ
SYMATTR SpiceLine Rser=0.6
SYMATTR Type ind
SYMBOL cap -720 80 R0
SYMATTR InstName C3
SYMATTR Value 4.7µ
SYMBOL cap 256 -176 R0
WINDOW 123 26 65 Left 2
WINDOW 3 38 41 Left 2
SYMATTR Value2 Rser=25
SYMATTR Value 90p
SYMATTR InstName C4
SYMBOL cap -624 368 M270
WINDOW 39 -21 32 VBottom 2
WINDOW 0 32 32 VTop 2
WINDOW 3 0 32 VBottom 2
SYMATTR SpiceLine Rser=10K
SYMATTR InstName C6
SYMATTR Value 330n
SYMBOL res -512 464 R0
SYMATTR InstName R4
SYMATTR Value 68.1k
SYMBOL NMOS 368 176 R0
SYMATTR InstName M1
SYMATTR Value IPD80R450P7
SYMBOL cap -448 -224 R0
SYMATTR InstName C7
SYMATTR Value 4.7µ
SYMBOL LT8316 -432 160 R0
SYMATTR InstName U1
SYMBOL diode -208 -224 M270
WINDOW 0 32 32 VTop 2
WINDOW 3 -1 15 VBottom 2
SYMATTR InstName D3
SYMATTR Value BAV21-WS-7-F
SYMBOL zener 128 -256 R0
WINDOW 123 47 32 Left 2
SYMATTR Value2 N=2
SYMATTR InstName D4
SYMATTR Value SMAJ200A
SYMATTR Description Diode
SYMATTR Type diode
SYMBOL cap 720 -272 R0
SYMATTR InstName C5
SYMATTR Value 100µ
SYMBOL polcap 816 -272 R0
SYMATTR InstName C1
SYMATTR Value 1m
SYMBOL res -256 -256 R90
WINDOW 0 0 56 VBottom 2
WINDOW 3 31 83 VTop 2
SYMATTR InstName R2
SYMATTR Value 100
SYMBOL res 32 240 R90
WINDOW 0 0 56 VBottom 2
WINDOW 3 32 56 VTop 2
SYMATTR InstName R3
SYMATTR Value 10
SYMBOL res 160 336 R90
WINDOW 0 0 56 VBottom 2
WINDOW 3 32 56 VTop 2
SYMATTR InstName R5
SYMATTR Value 100
SYMBOL cap -80 352 R0
SYMATTR InstName C8
SYMATTR Value 1n
SYMBOL res -800 -48 R0
SYMATTR InstName R6
SYMATTR Value 6.98k
SYMBOL res -800 -160 R0
SYMATTR InstName R7
SYMATTR Value 729k
SYMBOL polcap -576 -288 R0
SYMATTR InstName C9
SYMATTR Value 1m
TEXT 448 -288 Bottom 2 !K1 L1 L2 L3 0.993
TEXT -344 560 Left 2 !.tran 0 160m 140m startup
TEXT 416 -344 Left 2 ;18:1:3
TEXT -784 -344 Left 2 ;Input from full bridge rectifier
TEXT -64 -440 Left 2 ;Baseret på datablad figur 6
TEXT -176 -400 Left 2 ;75% effektivitet iflg. LTSpice, 91% ifølge ref. design
